
     RDKit          3D

115121  0  0  0  0  0  0  0  0999 V2000
   -3.1135   -4.2043    4.4591 C   0  0  0  0  0  0  0  0  0  0  0  0
   -3.1240   -3.2607    3.3033 C   0  0  0  0  0  0  0  0  0  0  0  0
   -3.7387   -3.5774    2.2489 O   0  0  0  0  0  0  0  0  0  0  0  0
   -2.4202   -2.0558    3.3876 O   0  0  0  0  0  0  0  0  0  0  0  0
   -2.4576   -1.0440    2.3773 C   0  0  1  0  0  0  0  0  0  0  0  0
   -3.8039   -0.3383    2.3719 C   0  0  0  0  0  0  0  0  0  0  0  0
   -4.4346   -0.4146    3.4210 O   0  0  0  0  0  0  0  0  0  0  0  0
   -4.4556    0.3944    1.1466 C   0  0  2  0  0  0  0  0  0  0  0  0
   -5.9373    0.6667    1.5870 C   0  0  0  0  0  0  0  0  0  0  0  0
   -4.5023   -0.5831   -0.0622 C   0  0  1  0  0  0  0  0  0  0  0  0
   -5.0620   -1.8098    0.3374 O   0  0  0  0  0  0  0  0  0  0  0  0
   -5.2902   -0.0510   -1.2719 C   0  0  0  0  0  0  0  0  0  0  0  0
   -5.1580    1.4575   -1.5813 C   0  0  1  0  0  0  0  0  0  0  0  0
   -6.3875    2.1167   -1.3617 O   0  0  0  0  0  0  0  0  0  0  0  0
   -5.7825    3.0444   -0.4971 C   0  0  0  0  0  0  0  0  0  0  0  0
   -4.4072    2.3970   -0.6348 C   0  0  2  0  0  0  0  0  0  0  0  0
   -3.5596    3.2723   -1.4003 O   0  0  0  0  0  0  0  0  0  0  0  0
   -3.1981    4.5748   -1.0177 C   0  0  0  0  0  0  0  0  0  0  0  0
   -2.2677    5.3548   -1.8795 C   0  0  0  0  0  0  0  0  0  0  0  0
   -3.6294    5.0813    0.0524 O   0  0  0  0  0  0  0  0  0  0  0  0
   -3.7547    1.7847    0.6973 C   0  0  2  0  0  0  0  0  0  0  0  0
   -2.1634    1.7975    0.5747 C   0  0  2  0  0  0  0  0  0  0  0  0
   -1.6906    0.6722   -0.1832 O   0  0  0  0  0  0  0  0  0  0  0  0
   -1.3247    0.7344   -1.5447 C   0  0  0  0  0  0  0  0  0  0  0  0
   -1.2592    1.8463   -2.1367 O   0  0  0  0  0  0  0  0  0  0  0  0
   -0.9649   -0.4942   -2.2899 C   0  0  0  0  0  0  0  0  0  0  0  0
   -1.0735   -1.7583   -1.6868 C   0  0  0  0  0  0  0  0  0  0  0  0
   -0.7127   -2.9130   -2.3900 C   0  0  0  0  0  0  0  0  0  0  0  0
   -0.2393   -2.8217   -3.7006 C   0  0  0  0  0  0  0  0  0  0  0  0
   -0.1382   -1.5731   -4.3174 C   0  0  0  0  0  0  0  0  0  0  0  0
   -0.4985   -0.4151   -3.6192 C   0  0  0  0  0  0  0  0  0  0  0  0
   -1.2125    2.1824    1.8088 C   0  0  2  0  0  0  0  0  0  0  0  0
   -1.4568    3.5278    2.1727 O   0  0  0  0  0  0  0  0  0  0  0  0
    0.2747    2.0413    1.3195 C   0  0  0  0  0  0  0  0  0  0  0  0
    0.8499    0.5781    1.3475 C   0  0  2  0  0  0  0  0  0  0  0  0
    1.2029    0.1623    0.0278 O   0  0  0  0  0  0  0  0  0  0  0  0
    2.2607    0.7090   -0.7046 C   0  0  0  0  0  0  0  0  0  0  0  0
    2.8771    1.7263   -0.2877 O   0  0  0  0  0  0  0  0  0  0  0  0
    2.6198    0.0991   -2.0220 C   0  0  0  0  0  0  0  0  0  0  0  0
    4.1414   -0.1006   -2.1889 C   0  0  2  0  0  0  0  0  0  0  0  0
    4.4398   -0.8261   -3.4883 C   0  0  0  0  0  0  0  0  0  0  0  0
    4.2216   -2.2099   -3.6221 C   0  0  0  0  0  0  0  0  0  0  0  0
    4.4875   -2.8556   -4.8345 C   0  0  0  0  0  0  0  0  0  0  0  0
    4.9547   -2.1265   -5.9304 C   0  0  0  0  0  0  0  0  0  0  0  0
    5.1600   -0.7491   -5.8159 C   0  0  0  0  0  0  0  0  0  0  0  0
    4.9069   -0.0999   -4.6018 C   0  0  0  0  0  0  0  0  0  0  0  0
    4.8000   -0.7715   -1.0408 N   0  0  0  0  0  0  0  0  0  0  0  0
    4.1331   -1.8017   -0.2257 C   0  0  0  0  0  0  0  0  0  0  0  0
    6.1841   -0.4680   -0.7642 C   0  0  0  0  0  0  0  0  0  0  0  0
    6.8993    0.0817   -1.6427 O   0  0  0  0  0  0  0  0  0  0  0  0
    6.7831   -0.7480    0.5484 C   0  0  0  0  0  0  0  0  0  0  0  0
    7.4153   -1.9775    0.7908 C   0  0  0  0  0  0  0  0  0  0  0  0
    7.9899   -2.2319    2.0411 C   0  0  0  0  0  0  0  0  0  0  0  0
    7.9487   -1.2571    3.0440 C   0  0  0  0  0  0  0  0  0  0  0  0
    7.3215   -0.0315    2.8013 C   0  0  0  0  0  0  0  0  0  0  0  0
    6.7372    0.2244    1.5582 C   0  0  0  0  0  0  0  0  0  0  0  0
   -0.0908   -0.4772    1.9450 C   0  0  0  0  0  0  0  0  0  0  0  0
    0.3275   -1.9314    1.8496 C   0  0  0  0  0  0  0  0  0  0  0  0
   -1.2561   -0.1272    2.5740 C   0  0  0  0  0  0  0  0  0  0  0  0
   -1.3577    1.3091    3.0975 C   0  0  0  0  0  0  0  0  0  0  0  0
   -2.6037    1.7014    3.9522 C   0  0  0  0  0  0  0  0  0  0  0  0
   -0.2013    1.5386    4.1371 C   0  0  0  0  0  0  0  0  0  0  0  0
   -2.5436   -5.1161    4.1839 H   0  0  0  0  0  0  0  0  0  0  0  0
   -2.6369   -3.7302    5.3460 H   0  0  0  0  0  0  0  0  0  0  0  0
   -4.1556   -4.4898    4.7205 H   0  0  0  0  0  0  0  0  0  0  0  0
   -2.3656   -1.5393    1.3946 H   0  0  0  0  0  0  0  0  0  0  0  0
   -5.9771    1.4802    2.3441 H   0  0  0  0  0  0  0  0  0  0  0  0
   -6.6310    0.9186    0.7734 H   0  0  0  0  0  0  0  0  0  0  0  0
   -6.3999   -0.2380    2.0404 H   0  0  0  0  0  0  0  0  0  0  0  0
   -3.4786   -0.7768   -0.4118 H   0  0  0  0  0  0  0  0  0  0  0  0
   -4.8072   -2.4867   -0.3431 H   0  0  0  0  0  0  0  0  0  0  0  0
   -4.9553   -0.6220   -2.1698 H   0  0  0  0  0  0  0  0  0  0  0  0
   -6.3658   -0.3126   -1.1519 H   0  0  0  0  0  0  0  0  0  0  0  0
   -4.8444    1.6028   -2.6405 H   0  0  0  0  0  0  0  0  0  0  0  0
   -5.8558    4.0573   -0.9477 H   0  0  0  0  0  0  0  0  0  0  0  0
   -6.2253    3.0468    0.5216 H   0  0  0  0  0  0  0  0  0  0  0  0
   -2.7832    6.2610   -2.2594 H   0  0  0  0  0  0  0  0  0  0  0  0
   -1.3750    5.6509   -1.2902 H   0  0  0  0  0  0  0  0  0  0  0  0
   -1.9372    4.7371   -2.7429 H   0  0  0  0  0  0  0  0  0  0  0  0
   -3.9854    2.5537    1.4584 H   0  0  0  0  0  0  0  0  0  0  0  0
   -1.9196    2.6689   -0.0343 H   0  0  0  0  0  0  0  0  0  0  0  0
   -1.4373   -1.8582   -0.6781 H   0  0  0  0  0  0  0  0  0  0  0  0
   -0.7989   -3.8817   -1.9133 H   0  0  0  0  0  0  0  0  0  0  0  0
    0.0380   -3.7208   -4.2382 H   0  0  0  0  0  0  0  0  0  0  0  0
    0.2271   -1.5011   -5.3358 H   0  0  0  0  0  0  0  0  0  0  0  0
   -0.3975    0.5401   -4.1177 H   0  0  0  0  0  0  0  0  0  0  0  0
   -1.1220    4.1235    1.4508 H   0  0  0  0  0  0  0  0  0  0  0  0
    0.3758    2.4758    0.3019 H   0  0  0  0  0  0  0  0  0  0  0  0
    0.9272    2.6833    1.9549 H   0  0  0  0  0  0  0  0  0  0  0  0
    1.7824    0.5664    1.9554 H   0  0  0  0  0  0  0  0  0  0  0  0
    2.0810   -0.8630   -2.1443 H   0  0  0  0  0  0  0  0  0  0  0  0
    2.2533    0.7748   -2.8244 H   0  0  0  0  0  0  0  0  0  0  0  0
    4.5542    0.9325   -2.2553 H   0  0  0  0  0  0  0  0  0  0  0  0
    3.8444   -2.7934   -2.7951 H   0  0  0  0  0  0  0  0  0  0  0  0
    4.3208   -3.9238   -4.9276 H   0  0  0  0  0  0  0  0  0  0  0  0
    5.1574   -2.6283   -6.8678 H   0  0  0  0  0  0  0  0  0  0  0  0
    5.5219   -0.1845   -6.6669 H   0  0  0  0  0  0  0  0  0  0  0  0
    5.0644    0.9699   -4.5373 H   0  0  0  0  0  0  0  0  0  0  0  0
    4.0129   -1.4360    0.8184 H   0  0  0  0  0  0  0  0  0  0  0  0
    4.7426   -2.7308   -0.2197 H   0  0  0  0  0  0  0  0  0  0  0  0
    3.1331   -2.0761   -0.6134 H   0  0  0  0  0  0  0  0  0  0  0  0
    7.4517   -2.7376    0.0197 H   0  0  0  0  0  0  0  0  0  0  0  0
    8.4777   -3.1780    2.2286 H   0  0  0  0  0  0  0  0  0  0  0  0
    8.3973   -1.4557    4.0104 H   0  0  0  0  0  0  0  0  0  0  0  0
    7.2926    0.7256    3.5749 H   0  0  0  0  0  0  0  0  0  0  0  0
    6.2585    1.1802    1.3819 H   0  0  0  0  0  0  0  0  0  0  0  0
   -0.3548   -2.5226    1.2148 H   0  0  0  0  0  0  0  0  0  0  0  0
    1.3483   -2.0235    1.4261 H   0  0  0  0  0  0  0  0  0  0  0  0
    0.3438   -2.3790    2.8653 H   0  0  0  0  0  0  0  0  0  0  0  0
   -3.5210    1.9016    3.3916 H   0  0  0  0  0  0  0  0  0  0  0  0
   -2.7966    0.9320    4.7297 H   0  0  0  0  0  0  0  0  0  0  0  0
   -2.4295    2.6601    4.4901 H   0  0  0  0  0  0  0  0  0  0  0  0
    0.7960    1.1919    3.8323 H   0  0  0  0  0  0  0  0  0  0  0  0
   -0.0988    2.6133    4.3862 H   0  0  0  0  0  0  0  0  0  0  0  0
   -0.4115    0.9856    5.0754 H   0  0  0  0  0  0  0  0  0  0  0  0
  1  2  1  0
  2  3  2  0
  2  4  1  0
  4  5  1  0
  5  6  1  0
  6  7  2  0
  6  8  1  0
  8  9  1  1
  8 10  1  0
 10 11  1  0
 10 12  1  0
 12 13  1  0
 13 14  1  0
 14 15  1  0
 15 16  1  0
 16 17  1  6
 17 18  1  0
 18 19  1  0
 18 20  2  0
 16 21  1  0
 21 22  1  0
 22 23  1  0
 23 24  1  0
 24 25  2  0
 24 26  1  0
 26 27  2  0
 27 28  1  0
 28 29  2  0
 29 30  1  0
 30 31  2  0
 22 32  1  0
 32 33  1  1
 32 34  1  0
 34 35  1  0
 35 36  1  0
 36 37  1  0
 37 38  2  0
 37 39  1  0
 39 40  1  0
 40 41  1  0
 41 42  2  0
 42 43  1  0
 43 44  2  0
 44 45  1  0
 45 46  2  0
 40 47  1  0
 47 48  1  0
 47 49  1  0
 49 50  2  0
 49 51  1  0
 51 52  2  0
 52 53  1  0
 53 54  2  0
 54 55  1  0
 55 56  2  0
 35 57  1  0
 57 58  1  0
 57 59  2  0
 59 60  1  0
 60 61  1  0
 60 62  1  0
 59  5  1  0
 21  8  1  0
 31 26  1  0
 60 32  1  0
 16 13  1  0
 46 41  1  0
 56 51  1  0
  1 63  1  0
  1 64  1  0
  1 65  1  0
  5 66  1  6
  9 67  1  0
  9 68  1  0
  9 69  1  0
 10 70  1  6
 11 71  1  0
 12 72  1  0
 12 73  1  0
 13 74  1  6
 15 75  1  0
 15 76  1  0
 19 77  1  0
 19 78  1  0
 19 79  1  0
 21 80  1  1
 22 81  1  6
 27 82  1  0
 28 83  1  0
 29 84  1  0
 30 85  1  0
 31 86  1  0
 33 87  1  0
 34 88  1  0
 34 89  1  0
 35 90  1  1
 39 91  1  0
 39 92  1  0
 40 93  1  6
 42 94  1  0
 43 95  1  0
 44 96  1  0
 45 97  1  0
 46 98  1  0
 48 99  1  0
 48100  1  0
 48101  1  0
 52102  1  0
 53103  1  0
 54104  1  0
 55105  1  0
 56106  1  0
 58107  1  0
 58108  1  0
 58109  1  0
 61110  1  0
 61111  1  0
 61112  1  0
 62113  1  0
 62114  1  0
 62115  1  0
M  END
$$$$
